REMARK  Name = biotin
REMARK  5 active torsions:
REMARK  status: ('A' for Active; 'I' for Inactive)
REMARK    1  A    between atoms: C_6  and  C_10
REMARK    2  A    between atoms: C_10  and  C_11
REMARK    3  A    between atoms: C_11  and  C_12
REMARK    4  A    between atoms: C_12  and  C_13
REMARK    5  A    between atoms: C_13  and  C_14
REMARK                            x       y       z     vdW  Elec       q    Type
REMARK                         _______ _______ _______ _____ _____    ______ ____
ROOT
ATOM      1  C   UNL     1      -1.797   0.124  -0.100  0.00  0.00    +0.000 C 
ATOM      2  O   UNL     1      -2.847   0.183  -0.712  0.00  0.00    +0.000 OA
ATOM      3  N   UNL     1      -1.060   1.195   0.342  0.00  0.00    +0.000 N 
ATOM      4  C   UNL     1       0.105   0.784   1.098  0.00  0.00    +0.000 C 
ATOM      5  C   UNL     1       0.089  -0.763   0.978  0.00  0.00    +0.000 C 
ATOM      6  C   UNL     1       1.354  -1.245   0.236  0.00  0.00    +0.000 C 
ATOM      7  C   UNL     1       1.401   1.357   0.535  0.00  0.00    +0.000 C 
ATOM      8  S   UNL     1       1.911   0.189  -0.738  0.00  0.00    +0.000 S 
ATOM      9  N   UNL     1      -1.157  -1.028   0.290  0.00  0.00    +0.000 N 
ATOM     10  H   UNL     1      -1.297   2.134   0.165  0.00  0.00    +0.000 HD
ATOM     11  H   UNL     1      -1.507  -1.933   0.122  0.00  0.00    +0.000 HD
ENDROOT
BRANCH   6  12
ATOM     12  C   UNL     1       1.178  -2.518  -0.601  0.00  0.00    +0.000 C 
BRANCH  12  13
ATOM     13  C   UNL     1       2.478  -2.975  -1.273  0.00  0.00    +0.000 C 
BRANCH  13  14
ATOM     14  C   UNL     1       2.275  -4.243  -2.098  0.00  0.00    +0.000 C 
BRANCH  14  15
ATOM     15  C   UNL     1       3.574  -4.645  -2.795  0.00  0.00    +0.000 C 
BRANCH  15  16
ATOM     16  C   UNL     1       3.409  -5.896  -3.622  0.00  0.00    +0.000 C 
ATOM     17  O   UNL     1       4.558  -6.258  -4.240  0.00  0.00    +0.000 OA
ATOM     18  O   UNL     1       2.376  -6.538  -3.738  0.00  0.00    +0.000 OA
ENDBRANCH  15  16
ENDBRANCH  14  15
ENDBRANCH  13  14
ENDBRANCH  12  13
ENDBRANCH   6  12
TORSDOF 5
