MODEL 1
REMARK VINA RESULT:    -4.957      0.000      0.000
REMARK INTER + INTRA:          -5.665
REMARK INTER:                  -5.827
REMARK INTRA:                   0.162
REMARK UNBOUND:                 0.162
REMARK  Name = ZINC000019439526
REMARK                            x       y       z     vdW  Elec       q    Type
REMARK                         _______ _______ _______ _____ _____    ______ ____
ROOT
ATOM      1  C   LIG    1       10.386  26.225  13.274  0.00  0.00    +0.280 C 
ENDROOT
BRANCH   1   6
ATOM      2  C   LIG    1       15.495  28.009  11.655  0.00  0.00    +0.190 C 
ATOM      3  N   LIG    1       14.119  27.849  12.143  0.00  0.00    -0.550 NA
ATOM      4  C   LIG    1       14.077  26.976  13.324  0.00  0.00    +0.180 C 
ATOM      5  C   LIG    1       12.641  26.898  13.847  0.00  0.00    +0.190 C 
ATOM      6  N   LIG    1       11.762  26.386  12.787  0.00  0.00    -0.520 NA
ATOM      7  C   LIG    1       11.804  27.259  11.606  0.00  0.00    +0.190 C 
ATOM      8  C   LIG    1       13.240  27.337  11.082  0.00  0.00    +0.190 C 
ENDBRANCH   1   6
BRANCH   1   9
ATOM      9  C   LIG    1       10.343  25.131  14.308  0.00  0.00    +0.360 C 
ATOM     10  N   LIG    1       11.237  24.198  14.298  0.00  0.00    -0.390 NA
BRANCH   9  11
ATOM     11  N   LIG    1        9.352  25.122  15.264  0.00  0.00    -0.870 N 
ATOM     12  H   LIG    1        9.570  24.928  16.188  0.00  0.00    +0.410 HD
ATOM     13  H   LIG    1        8.434  25.311  15.011  0.00  0.00    +0.400 HD
ENDBRANCH   9  11
BRANCH  10  14
ATOM     14  O   LIG    1       11.198  23.168  15.269  0.00  0.00    -0.440 OA
ATOM     15  H   LIG    1       10.398  22.627  15.238  0.00  0.00    +0.400 HD
ENDBRANCH  10  14
ENDBRANCH   1   9
TORSDOF 4
ENDMDL
MODEL 2
REMARK VINA RESULT:    -4.955     10.144     11.524
REMARK INTER + INTRA:          -5.663
REMARK INTER:                  -5.550
REMARK INTRA:                  -0.112
REMARK UNBOUND:                 0.162
REMARK  Name = ZINC000019439526
REMARK                            x       y       z     vdW  Elec       q    Type
REMARK                         _______ _______ _______ _____ _____    ______ ____
ROOT
ATOM      1  C   LIG    1       20.600  29.523  21.495  0.00  0.00    +0.280 C 
ENDROOT
BRANCH   1   6
ATOM      2  C   LIG    1       19.563  28.835  15.985  0.00  0.00    +0.190 C 
ATOM      3  N   LIG    1       19.969  28.732  17.393  0.00  0.00    -0.550 NA
ATOM      4  C   LIG    1       18.799  28.738  18.281  0.00  0.00    +0.180 C 
ATOM      5  C   LIG    1       19.258  28.550  19.729  0.00  0.00    +0.190 C 
ATOM      6  N   LIG    1       20.193  29.626  20.087  0.00  0.00    -0.520 NA
ATOM      7  C   LIG    1       21.364  29.619  19.199  0.00  0.00    +0.190 C 
ATOM      8  C   LIG    1       20.904  29.808  17.752  0.00  0.00    +0.190 C 
ENDBRANCH   1   6
BRANCH   1   9
ATOM      9  C   LIG    1       20.088  30.719  22.255  0.00  0.00    +0.360 C 
ATOM     10  N   LIG    1       18.933  31.221  21.967  0.00  0.00    -0.390 NA
BRANCH   9  11
ATOM     11  N   LIG    1       20.851  31.278  23.256  0.00  0.00    -0.870 N 
ATOM     12  H   LIG    1       20.468  31.425  24.133  0.00  0.00    +0.410 HD
ATOM     13  H   LIG    1       21.773  31.525  23.081  0.00  0.00    +0.400 HD
ENDBRANCH   9  11
BRANCH  10  14
ATOM     14  O   LIG    1       18.451  32.345  22.681  0.00  0.00    -0.440 OA
ATOM     15  H   LIG    1       19.062  33.094  22.695  0.00  0.00    +0.400 HD
ENDBRANCH  10  14
ENDBRANCH   1   9
TORSDOF 4
ENDMDL
MODEL 3
REMARK VINA RESULT:    -4.880     13.307     14.409
REMARK INTER + INTRA:          -5.574
REMARK INTER:                  -5.413
REMARK INTRA:                  -0.161
REMARK UNBOUND:                 0.162
REMARK  Name = ZINC000019439526
REMARK                            x       y       z     vdW  Elec       q    Type
REMARK                         _______ _______ _______ _____ _____    ______ ____
ROOT
ATOM      1  C   LIG    1       20.271  30.573  22.088  0.00  0.00    +0.280 C 
ENDROOT
BRANCH   1   6
ATOM      2  C   LIG    1       23.930  26.594  23.728  0.00  0.00    +0.190 C 
ATOM      3  N   LIG    1       22.987  27.476  23.027  0.00  0.00    -0.550 NA
ATOM      4  C   LIG    1       23.507  28.848  22.948  0.00  0.00    +0.180 C 
ATOM      5  C   LIG    1       22.535  29.714  22.144  0.00  0.00    +0.190 C 
ATOM      6  N   LIG    1       21.214  29.692  22.789  0.00  0.00    -0.520 NA
ATOM      7  C   LIG    1       20.694  28.320  22.868  0.00  0.00    +0.190 C 
ATOM      8  C   LIG    1       21.666  27.454  23.672  0.00  0.00    +0.190 C 
ENDBRANCH   1   6
BRANCH   1   9
ATOM      9  C   LIG    1       19.635  31.515  23.077  0.00  0.00    +0.360 C 
ATOM     10  N   LIG    1       20.159  31.675  24.246  0.00  0.00    -0.390 NA
BRANCH   9  11
ATOM     11  N   LIG    1       18.493  32.206  22.735  0.00  0.00    -0.870 N 
ATOM     12  H   LIG    1       18.125  32.122  21.842  0.00  0.00    +0.410 HD
ATOM     13  H   LIG    1       18.058  32.776  23.388  0.00  0.00    +0.400 HD
ENDBRANCH   9  11
BRANCH  10  14
ATOM     14  O   LIG    1       19.562  32.561  25.176  0.00  0.00    -0.440 OA
ATOM     15  H   LIG    1       20.181  32.938  25.816  0.00  0.00    +0.400 HD
ENDBRANCH  10  14
ENDBRANCH   1   9
TORSDOF 4
ENDMDL
MODEL 4
REMARK VINA RESULT:    -4.826     12.422     13.437
REMARK INTER + INTRA:          -5.510
REMARK INTER:                  -5.476
REMARK INTRA:                  -0.034
REMARK UNBOUND:                 0.162
REMARK  Name = ZINC000019439526
REMARK                            x       y       z     vdW  Elec       q    Type
REMARK                         _______ _______ _______ _____ _____    ______ ____
ROOT
ATOM      1  C   LIG    1       20.667  29.441  22.762  0.00  0.00    +0.280 C 
ENDROOT
BRANCH   1   6
ATOM      2  C   LIG    1       24.449  27.770  18.913  0.00  0.00    +0.190 C 
ATOM      3  N   LIG    1       23.364  27.908  19.894  0.00  0.00    -0.550 NA
ATOM      4  C   LIG    1       22.372  28.896  19.448  0.00  0.00    +0.180 C 
ATOM      5  C   LIG    1       21.222  28.952  20.455  0.00  0.00    +0.190 C 
ATOM      6  N   LIG    1       21.751  29.303  21.781  0.00  0.00    -0.520 NA
ATOM      7  C   LIG    1       22.743  28.315  22.227  0.00  0.00    +0.190 C 
ATOM      8  C   LIG    1       23.893  28.259  21.219  0.00  0.00    +0.190 C 
ENDBRANCH   1   6
BRANCH   1   9
ATOM      9  C   LIG    1       20.186  30.869  22.783  0.00  0.00    +0.360 C 
ATOM     10  N   LIG    1       19.264  31.252  21.964  0.00  0.00    -0.390 NA
BRANCH   9  11
ATOM     11  N   LIG    1       20.730  31.766  23.675  0.00  0.00    -0.870 N 
ATOM     12  H   LIG    1       20.260  31.982  24.494  0.00  0.00    +0.410 HD
ATOM     13  H   LIG    1       21.585  32.183  23.482  0.00  0.00    +0.400 HD
ENDBRANCH   9  11
BRANCH  10  14
ATOM     14  O   LIG    1       18.811  32.594  21.983  0.00  0.00    -0.440 OA
ATOM     15  H   LIG    1       19.167  33.140  21.268  0.00  0.00    +0.400 HD
ENDBRANCH  10  14
ENDBRANCH   1   9
TORSDOF 4
ENDMDL
MODEL 5
REMARK VINA RESULT:    -4.815     10.849     12.224
REMARK INTER + INTRA:          -5.498
REMARK INTER:                  -5.352
REMARK INTRA:                  -0.146
REMARK UNBOUND:                 0.162
REMARK  Name = ZINC000019439526
REMARK                            x       y       z     vdW  Elec       q    Type
REMARK                         _______ _______ _______ _____ _____    ______ ____
ROOT
ATOM      1  C   LIG    1       21.132  30.339  17.296  0.00  0.00    +0.280 C 
ENDROOT
BRANCH   1   6
ATOM      2  C   LIG    1       20.872  28.085  22.468  0.00  0.00    +0.190 C 
ATOM      3  N   LIG    1       20.979  28.373  21.032  0.00  0.00    -0.550 NA
ATOM      4  C   LIG    1       22.139  29.230  20.751  0.00  0.00    +0.180 C 
ATOM      5  C   LIG    1       22.261  29.441  19.241  0.00  0.00    +0.190 C 
ATOM      6  N   LIG    1       21.025  30.051  18.732  0.00  0.00    -0.520 NA
ATOM      7  C   LIG    1       19.865  29.194  19.013  0.00  0.00    +0.190 C 
ATOM      8  C   LIG    1       19.743  28.983  20.523  0.00  0.00    +0.190 C 
ENDBRANCH   1   6
BRANCH   1   9
ATOM      9  C   LIG    1       21.040  31.826  17.073  0.00  0.00    +0.360 C 
ATOM     10  N   LIG    1       19.929  32.353  16.675  0.00  0.00    -0.390 NA
BRANCH   9  11
ATOM     11  N   LIG    1       22.140  32.626  17.293  0.00  0.00    -0.870 N 
ATOM     12  H   LIG    1       22.798  32.373  17.958  0.00  0.00    +0.410 HD
ATOM     13  H   LIG    1       22.256  33.442  16.781  0.00  0.00    +0.400 HD
ENDBRANCH   9  11
BRANCH  10  14
ATOM     14  O   LIG    1       19.842  33.751  16.465  0.00  0.00    -0.440 OA
ATOM     15  H   LIG    1       20.004  34.279  17.259  0.00  0.00    +0.400 HD
ENDBRANCH  10  14
ENDBRANCH   1   9
TORSDOF 4
ENDMDL
MODEL 6
REMARK VINA RESULT:    -4.754      2.964      4.438
REMARK INTER + INTRA:          -5.426
REMARK INTER:                  -5.270
REMARK INTRA:                  -0.156
REMARK UNBOUND:                 0.162
REMARK  Name = ZINC000019439526
REMARK                            x       y       z     vdW  Elec       q    Type
REMARK                         _______ _______ _______ _____ _____    ______ ____
ROOT
ATOM      1  C   LIG    1       15.476  27.212  12.341  0.00  0.00    +0.280 C 
ENDROOT
BRANCH   1   6
ATOM      2  C   LIG    1       10.233  28.208  10.492  0.00  0.00    +0.190 C 
ATOM      3  N   LIG    1       11.624  28.262  10.960  0.00  0.00    -0.550 NA
ATOM      4  C   LIG    1       12.519  27.556  10.033  0.00  0.00    +0.180 C 
ATOM      5  C   LIG    1       13.965  27.702  10.513  0.00  0.00    +0.190 C 
ATOM      6  N   LIG    1       14.085  27.158  11.873  0.00  0.00    -0.520 NA
ATOM      7  C   LIG    1       13.190  27.865  12.800  0.00  0.00    +0.190 C 
ATOM      8  C   LIG    1       11.744  27.718  12.320  0.00  0.00    +0.190 C 
ENDBRANCH   1   6
BRANCH   1   9
ATOM      9  C   LIG    1       15.816  25.931  13.056  0.00  0.00    +0.360 C 
ATOM     10  N   LIG    1       15.160  24.849  12.790  0.00  0.00    -0.390 NA
BRANCH   9  11
ATOM     11  N   LIG    1       16.825  25.910  13.994  0.00  0.00    -0.870 N 
ATOM     12  H   LIG    1       16.877  25.185  14.634  0.00  0.00    +0.410 HD
ATOM     13  H   LIG    1       17.483  26.623  14.013  0.00  0.00    +0.400 HD
ENDBRANCH   9  11
BRANCH  10  14
ATOM     14  O   LIG    1       15.479  23.644  13.462  0.00  0.00    -0.440 OA
ATOM     15  H   LIG    1       16.320  23.252  13.190  0.00  0.00    +0.400 HD
ENDBRANCH  10  14
ENDBRANCH   1   9
TORSDOF 4
ENDMDL
MODEL 7
REMARK VINA RESULT:    -4.748     10.966     12.453
REMARK INTER + INTRA:          -5.419
REMARK INTER:                  -5.317
REMARK INTRA:                  -0.102
REMARK UNBOUND:                 0.162
REMARK  Name = ZINC000019439526
REMARK                            x       y       z     vdW  Elec       q    Type
REMARK                         _______ _______ _______ _____ _____    ______ ____
ROOT
ATOM      1  C   LIG    1       20.591  30.594  17.302  0.00  0.00    +0.280 C 
ENDROOT
BRANCH   1   6
ATOM      2  C   LIG    1       24.644  27.591  19.843  0.00  0.00    +0.190 C 
ATOM      3  N   LIG    1       23.461  28.090  19.129  0.00  0.00    -0.550 NA
ATOM      4  C   LIG    1       23.848  28.800  17.902  0.00  0.00    +0.180 C 
ATOM      5  C   LIG    1       22.589  29.234  17.148  0.00  0.00    +0.190 C 
ATOM      6  N   LIG    1       21.773  30.095  18.016  0.00  0.00    -0.520 NA
ATOM      7  C   LIG    1       21.387  29.385  19.244  0.00  0.00    +0.190 C 
ATOM      8  C   LIG    1       22.646  28.952  19.997  0.00  0.00    +0.190 C 
ENDBRANCH   1   6
BRANCH   1   9
ATOM      9  C   LIG    1       20.773  32.056  16.988  0.00  0.00    +0.360 C 
ATOM     10  N   LIG    1       19.785  32.744  16.520  0.00  0.00    -0.390 NA
BRANCH   9  11
ATOM     11  N   LIG    1       21.994  32.659  17.197  0.00  0.00    -0.870 N 
ATOM     12  H   LIG    1       22.111  33.599  16.993  0.00  0.00    +0.410 HD
ATOM     13  H   LIG    1       22.735  32.143  17.550  0.00  0.00    +0.400 HD
ENDBRANCH   9  11
BRANCH  10  14
ATOM     14  O   LIG    1       19.956  34.119  16.223  0.00  0.00    -0.440 OA
ATOM     15  H   LIG    1       19.364  34.450  15.535  0.00  0.00    +0.400 HD
ENDBRANCH  10  14
ENDBRANCH   1   9
TORSDOF 4
ENDMDL
MODEL 8
REMARK VINA RESULT:    -4.711      7.584      9.454
REMARK INTER + INTRA:          -5.375
REMARK INTER:                  -5.221
REMARK INTRA:                  -0.154
REMARK UNBOUND:                 0.162
REMARK  Name = ZINC000019439526
REMARK                            x       y       z     vdW  Elec       q    Type
REMARK                         _______ _______ _______ _____ _____    ______ ____
ROOT
ATOM      1  C   LIG    1       18.283  31.839  15.299  0.00  0.00    +0.280 C 
ENDROOT
BRANCH   1   6
ATOM      2  C   LIG    1       22.272  29.508  18.549  0.00  0.00    +0.190 C 
ATOM      3  N   LIG    1       21.384  29.965  17.471  0.00  0.00    -0.550 NA
ATOM      4  C   LIG    1       21.417  31.429  17.347  0.00  0.00    +0.180 C 
ATOM      5  C   LIG    1       20.544  31.858  16.166  0.00  0.00    +0.190 C 
ATOM      6  N   LIG    1       19.170  31.382  16.377  0.00  0.00    -0.520 NA
ATOM      7  C   LIG    1       19.137  29.918  16.501  0.00  0.00    +0.190 C 
ATOM      8  C   LIG    1       20.010  29.489  17.682  0.00  0.00    +0.190 C 
ENDBRANCH   1   6
BRANCH   1   9
ATOM      9  C   LIG    1       16.852  31.777  15.766  0.00  0.00    +0.360 C 
ATOM     10  N   LIG    1       16.001  31.030  15.144  0.00  0.00    -0.390 NA
BRANCH   9  11
ATOM     11  N   LIG    1       16.449  32.518  16.855  0.00  0.00    -0.870 N 
ATOM     12  H   LIG    1       17.011  32.566  17.644  0.00  0.00    +0.410 HD
ATOM     13  H   LIG    1       15.603  32.992  16.833  0.00  0.00    +0.400 HD
ENDBRANCH   9  11
BRANCH  10  14
ATOM     14  O   LIG    1       14.656  30.971  15.583  0.00  0.00    -0.440 OA
ATOM     15  H   LIG    1       14.512  30.383  16.336  0.00  0.00    +0.400 HD
ENDBRANCH  10  14
ENDBRANCH   1   9
TORSDOF 4
ENDMDL
MODEL 9
REMARK VINA RESULT:    -4.708     10.565     11.792
REMARK INTER + INTRA:          -5.373
REMARK INTER:                  -5.203
REMARK INTRA:                  -0.170
REMARK UNBOUND:                 0.162
REMARK  Name = ZINC000019439526
REMARK                            x       y       z     vdW  Elec       q    Type
REMARK                         _______ _______ _______ _____ _____    ______ ____
ROOT
ATOM      1  C   LIG    1       19.595  28.885  19.572  0.00  0.00    +0.280 C 
ENDROOT
BRANCH   1   6
ATOM      2  C   LIG    1       21.930  30.251  24.530  0.00  0.00    +0.190 C 
ATOM      3  N   LIG    1       21.565  30.056  23.121  0.00  0.00    -0.550 NA
ATOM      4  C   LIG    1       20.261  30.663  22.825  0.00  0.00    +0.180 C 
ATOM      5  C   LIG    1       19.955  30.508  21.334  0.00  0.00    +0.190 C 
ATOM      6  N   LIG    1       19.959  29.081  20.981  0.00  0.00    -0.520 NA
ATOM      7  C   LIG    1       21.264  28.473  21.277  0.00  0.00    +0.190 C 
ATOM      8  C   LIG    1       21.570  28.629  22.768  0.00  0.00    +0.190 C 
ENDBRANCH   1   6
BRANCH   1   9
ATOM      9  C   LIG    1       18.129  28.552  19.473  0.00  0.00    +0.360 C 
ATOM     10  N   LIG    1       17.606  27.693  20.285  0.00  0.00    -0.390 NA
BRANCH   9  11
ATOM     11  N   LIG    1       17.346  29.161  18.518  0.00  0.00    -0.870 N 
ATOM     12  H   LIG    1       16.972  30.039  18.685  0.00  0.00    +0.410 HD
ATOM     13  H   LIG    1       17.170  28.710  17.677  0.00  0.00    +0.400 HD
ENDBRANCH   9  11
BRANCH  10  14
ATOM     14  O   LIG    1       16.228  27.379  20.193  0.00  0.00    -0.440 OA
ATOM     15  H   LIG    1       15.759  27.863  19.499  0.00  0.00    +0.400 HD
ENDBRANCH  10  14
ENDBRANCH   1   9
TORSDOF 4
ENDMDL
