REMARK  Name = ZINC000002555679
REMARK                            x       y       z     vdW  Elec       q    Type
REMARK                         _______ _______ _______ _____ _____    ______ ____
ROOT
ATOM      1  C   LIG    1       -0.017   1.428   0.010  0.00  0.00    -0.300 A 
ATOM      2  C   LIG    1       -1.233   2.131   0.031  0.00  0.00    +0.480 A 
ATOM      3  N   LIG    1       -1.221   3.463   0.038  0.00  0.00    -0.630 NA
ATOM      4  C   LIG    1       -0.091   4.141   0.025  0.00  0.00    +0.690 A 
ATOM      5  N   LIG    1        1.119   3.519   0.004  0.00  0.00    -0.650 N 
ATOM      6  H   LIG    1        1.933   4.046  -0.004  0.00  0.00    +0.420 HD
ATOM      7  C   LIG    1        1.190   2.171   0.002  0.00  0.00    +0.580 A 
ATOM      8  O   LIG    1        2.269   1.605  -0.016  0.00  0.00    -0.510 OA
ENDROOT
BRANCH   4   9
ATOM      9  N   LIG    1       -0.135   5.507   0.034  0.00  0.00    -0.800 N 
ATOM     10  H   LIG    1        0.688   6.019   0.024  0.00  0.00    +0.420 HD
ATOM     11  H   LIG    1       -0.991   5.964   0.049  0.00  0.00    +0.430 HD
ENDBRANCH   4   9
BRANCH   1  13
ATOM     12  N   LIG    1        0.018  -1.140  -0.004  0.00  0.00    -0.430 NA
ATOM     13  C   LIG    1        0.002  -0.004   0.002  0.00  0.00    +0.300 C 
ENDBRANCH   1  13
BRANCH   2  14
ATOM     14  O   LIG    1       -2.406   1.461   0.045  0.00  0.00    -0.270 OA
BRANCH  14  15
ATOM     15  C   LIG    1       -3.601   2.245   0.066  0.00  0.00    +0.230 C 
BRANCH  15  16
ATOM     16  C   LIG    1       -4.819   1.319   0.080  0.00  0.00    +0.200 C 
BRANCH  16  17
ATOM     17  O   LIG    1       -4.835   0.572   1.297  0.00  0.00    -0.570 OA
ATOM     18  H   LIG    1       -5.582  -0.038   1.375  0.00  0.00    +0.390 HD
ENDBRANCH  16  17
ENDBRANCH  15  16
ENDBRANCH  14  15
ENDBRANCH   2  14
TORSDOF 6
