REMARK  Name = ZINC000074942485
REMARK                            x       y       z     vdW  Elec       q    Type
REMARK                         _______ _______ _______ _____ _____    ______ ____
ROOT
ATOM      1  N   LIG    1        0.002  -0.004   0.002  0.00  0.00    -0.260 NA
ATOM      2  C   LIG    1        1.130  -0.635  -0.012  0.00  0.00    +0.250 C 
ATOM      3  C   LIG    1        1.193  -2.149  -0.027  0.00  0.00    +0.330 C 
ATOM      4  O   LIG    1        2.184  -2.565   0.919  0.00  0.00    -0.370 OA
ATOM      5  C   LIG    1        3.477  -1.996   0.694  0.00  0.00    +0.210 C 
ATOM      6  C   LIG    1        3.405  -0.475   0.875  0.00  0.00    +0.240 C 
ATOM      7  N   LIG    1        2.354   0.048  -0.020  0.00  0.00    -0.790 N 
ATOM      8  H   LIG    1        2.502   0.827  -0.580  0.00  0.00    +0.400 HD
ENDROOT
BRANCH   1   9
ATOM      9  N   LIG    1       -0.017   1.397   0.010  0.00  0.00    -0.790 N 
ATOM     10  H   LIG    1       -0.864   1.870   0.016  0.00  0.00    +0.420 HD
ATOM     11  H   LIG    1        0.816   1.893   0.004  0.00  0.00    +0.370 HD
ENDBRANCH   1   9
TORSDOF 1
