REMARK  Name = ZINC000019439526
REMARK                            x       y       z     vdW  Elec       q    Type
REMARK                         _______ _______ _______ _____ _____    ______ ____
ROOT
ATOM      1  C   LIG    1       -0.568  -4.068   1.006  0.00  0.00    +0.280 C 
ENDROOT
BRANCH   1   6
ATOM      2  C   LIG    1       -0.018   1.465   0.010  0.00  0.00    +0.190 C 
ATOM      3  N   LIG    1        0.002  -0.004   0.002  0.00  0.00    -0.550 NA
ATOM      4  C   LIG    1       -1.360  -0.549  -0.079  0.00  0.00    +0.180 C 
ATOM      5  C   LIG    1       -1.292  -2.075  -0.165  0.00  0.00    +0.190 C 
ATOM      6  N   LIG    1       -0.588  -2.599   1.014  0.00  0.00    -0.520 NA
ATOM      7  C   LIG    1        0.774  -2.054   1.095  0.00  0.00    +0.190 C 
ATOM      8  C   LIG    1        0.706  -0.528   1.181  0.00  0.00    +0.190 C 
ENDBRANCH   1   6
BRANCH   1   9
ATOM      9  C   LIG    1       -0.063  -4.571   2.333  0.00  0.00    +0.360 C 
ATOM     10  N   LIG    1        0.271  -3.732   3.257  0.00  0.00    -0.390 NA
BRANCH   9  11
ATOM     11  N   LIG    1        0.044  -5.925   2.562  0.00  0.00    -0.870 N 
ATOM     12  H   LIG    1        0.369  -6.248   3.416  0.00  0.00    +0.410 HD
ATOM     13  H   LIG    1       -0.206  -6.555   1.868  0.00  0.00    +0.400 HD
ENDBRANCH   9  11
BRANCH  10  14
ATOM     14  O   LIG    1        0.746  -4.204   4.505  0.00  0.00    -0.440 OA
ATOM     15  H   LIG    1        0.970  -3.503   5.132  0.00  0.00    +0.400 HD
ENDBRANCH  10  14
ENDBRANCH   1   9
TORSDOF 4
