REMARK  Name = ZINC000014586596
REMARK                            x       y       z     vdW  Elec       q    Type
REMARK                         _______ _______ _______ _____ _____    ______ ____
ROOT
ATOM      1  C   LIG    1       -2.851  -2.587  -0.110  0.00  0.00    +0.180 C 
ENDROOT
BRANCH   1   2
ATOM      2  O   LIG    1       -3.607  -1.934  -1.132  0.00  0.00    -0.540 OA
ATOM      3  H   LIG    1       -3.261  -2.068  -2.024  0.00  0.00    +0.370 HD
ENDBRANCH   1   2
BRANCH   1   4
ATOM      4  C   LIG    1       -1.416  -2.058  -0.121  0.00  0.00    +0.170 C 
BRANCH   4   5
ATOM      5  O   LIG    1       -0.783  -2.420  -1.350  0.00  0.00    -0.540 OA
ATOM      6  H   LIG    1       -1.223  -2.070  -2.137  0.00  0.00    +0.370 HD
ENDBRANCH   4   5
BRANCH   4   7
ATOM      7  C   LIG    1       -1.433  -0.534   0.013  0.00  0.00    +0.190 C 
BRANCH   7   8
ATOM      8  O   LIG    1       -2.066  -0.171   1.242  0.00  0.00    -0.540 OA
ATOM      9  H   LIG    1       -1.626  -0.521   2.029  0.00  0.00    +0.370 HD
ENDBRANCH   7   8
BRANCH   7  10
ATOM     10  C   LIG    1        0.002  -0.004   0.002  0.00  0.00    +0.150 C 
BRANCH  10  11
ATOM     11  O   LIG    1       -0.017   1.425   0.010  0.00  0.00    -0.570 OA
ATOM     12  H   LIG    1        0.861   1.830   0.004  0.00  0.00    +0.380 HD
ENDBRANCH  10  11
ENDBRANCH   7  10
ENDBRANCH   4   7
ENDBRANCH   1   4
BRANCH   1  13
ATOM     13  C   LIG    1       -2.840  -4.095  -0.369  0.00  0.00    +0.270 C 
BRANCH  13  14
ATOM     14  C   LIG    1       -4.254  -4.617  -0.358  0.00  0.00    +0.200 C 
ATOM     15  N   LIG    1       -4.600  -5.511   0.489  0.00  0.00    -0.320 NA
BRANCH  15  16
ATOM     16  O   LIG    1       -5.928  -6.001   0.499  0.00  0.00    -0.410 OA
ATOM     17  H   LIG    1       -6.094  -6.674   1.174  0.00  0.00    +0.410 HD
ENDBRANCH  15  16
ENDBRANCH  13  14
BRANCH  13  18
ATOM     18  O   LIG    1       -2.084  -4.748   0.652  0.00  0.00    -0.540 OA
ATOM     19  H   LIG    1       -2.431  -4.614   1.545  0.00  0.00    +0.380 HD
ENDBRANCH  13  18
ENDBRANCH   1  13
TORSDOF 11
