REMARK  Name = ZINC000004096974
REMARK                            x       y       z     vdW  Elec       q    Type
REMARK                         _______ _______ _______ _____ _____    ______ ____
ROOT
ATOM      1  C   LIG    1       -2.462   0.005   0.026  0.00  0.00    +0.260 C 
ENDROOT
BRANCH   1   2
ATOM      2  N   LIG    1       -1.183  -0.710   0.009  0.00  0.00    -0.720 N 
ATOM      3  H   LIG    1       -1.170  -1.680   0.004  0.00  0.00    +0.420 HD
BRANCH   2   4
ATOM      4  C   LIG    1        0.002  -0.004   0.002  0.00  0.00    +0.610 C 
ATOM      5  N   LIG    1        1.137  -0.639  -0.012  0.00  0.00    -0.490 NA
BRANCH   4   6
ATOM      6  N   LIG    1       -0.017   1.376   0.010  0.00  0.00    -0.880 N 
ATOM      7  H   LIG    1       -0.863   1.849   0.016  0.00  0.00    +0.390 HD
ATOM      8  H   LIG    1        0.817   1.872   0.004  0.00  0.00    +0.420 HD
ENDBRANCH   4   6
BRANCH   5   9
ATOM      9  O   LIG    1        2.354   0.086  -0.020  0.00  0.00    -0.420 OA
ATOM     10  H   LIG    1        3.144  -0.472  -0.030  0.00  0.00    +0.400 HD
ENDBRANCH   5   9
ENDBRANCH   2   4
ENDBRANCH   1   2
BRANCH   1  11
ATOM     11  C   LIG    1       -3.611  -1.005   0.031  0.00  0.00    +0.010 C 
BRANCH  11  12
ATOM     12  C   LIG    1       -4.947  -0.258   0.048  0.00  0.00    +0.080 C 
BRANCH  12  13
ATOM     13  CA  LIG    1       -6.096  -1.268   0.053  0.00  0.00    +0.090 C 
BRANCH  13  14
ATOM     14  N   LIG    1       -6.089  -2.024  -1.206  0.00  0.00    -0.610 N 
ATOM     15  H1  LIG    1       -6.847  -2.690  -1.202  0.00  0.00    +0.430 HD
ATOM     16  H2  LIG    1       -5.212  -2.514  -1.300  0.00  0.00    +0.410 HD
ATOM     17  H3  LIG    1       -6.204  -1.388  -1.981  0.00  0.00    +0.430 HD
ENDBRANCH  13  14
BRANCH  13  18
ATOM     18  C   LIG    1       -7.406  -0.537   0.194  0.00  0.00    +0.490 C 
ATOM     19  OXT LIG    1       -7.693   0.003   1.248  0.00  0.00    -0.630 OA
ATOM     20  O   LIG    1       -8.179  -0.486  -0.748  0.00  0.00    -0.670 OA
ENDBRANCH  13  18
ENDBRANCH  12  13
ENDBRANCH  11  12
ENDBRANCH   1  11
TORSDOF 9
