REMARK  Name = ZINC000006904092
REMARK                            x       y       z     vdW  Elec       q    Type
REMARK                         _______ _______ _______ _____ _____    ______ ____
ROOT
ATOM      1  C   LIG    1        1.585   3.303   0.005  0.00  0.00    +0.530 C 
ATOM      2  C   LIG    1        2.878   3.782   0.099  0.00  0.00    -0.440 C 
ATOM      3  C   LIG    1        4.038   2.873   0.081  0.00  0.00    +0.580 C 
ATOM      4  N   LIG    1        5.271   3.411   0.177  0.00  0.00    -0.660 N 
ATOM      5  H   LIG    1        6.046   2.827   0.166  0.00  0.00    +0.430 HD
ATOM      6  C   LIG    1        5.452   4.735   0.286  0.00  0.00    +0.720 C 
ATOM      7  N   LIG    1        4.445   5.619   0.310  0.00  0.00    -0.660 N 
ATOM      8  H   LIG    1        4.646   6.564   0.391  0.00  0.00    +0.430 HD
ATOM      9  O   LIG    1        6.589   5.156   0.369  0.00  0.00    -0.540 OA
ATOM     10  O   LIG    1        3.888   1.670  -0.019  0.00  0.00    -0.530 OA
ATOM     11  C   LIG    1        3.158   5.224   0.217  0.00  0.00    +0.590 C 
ATOM     12  O   LIG    1        2.252   6.037   0.239  0.00  0.00    -0.510 OA
ENDROOT
BRANCH   1  13
ATOM     13  N   LIG    1        1.351   1.977   0.059  0.00  0.00    -0.660 N 
ATOM     14  H   LIG    1        2.079   1.363   0.245  0.00  0.00    +0.430 HD
BRANCH  13  15
ATOM     15  C   LIG    1       -0.002   1.462  -0.164  0.00  0.00    +0.430 C 
BRANCH  15  17
ATOM     16  C   LIG    1        0.015  -1.177   0.036  0.00  0.00    +0.100 C 
ATOM     17  C   LIG    1        0.008  -0.006  -0.053  0.00  0.00    -0.240 C 
ENDBRANCH  15  17
ENDBRANCH  13  15
ENDBRANCH   1  13
TORSDOF 3
