REMARK  Name = ZINC000104586049
REMARK                            x       y       z     vdW  Elec       q    Type
REMARK                         _______ _______ _______ _____ _____    ______ ____
ROOT
ATOM      1  C   LIG    1        0.659  -2.079  -1.122  0.00  0.00    +0.350 C 
ATOM      2  N   LIG    1        0.133  -2.799  -0.178  0.00  0.00    -0.350 NA
ENDROOT
BRANCH   1   3
ATOM      3  N   LIG    1        1.275  -2.695  -2.202  0.00  0.00    -0.850 N 
ATOM      4  H   LIG    1        1.313  -3.663  -2.252  0.00  0.00    +0.420 HD
ATOM      5  H   LIG    1        1.668  -2.158  -2.908  0.00  0.00    +0.410 HD
ENDBRANCH   1   3
BRANCH   1   6
ATOM      6  C   LIG    1        0.601  -0.602  -1.046  0.00  0.00    +0.540 C 
ATOM      7  O   LIG    1        1.092   0.071  -1.929  0.00  0.00    -0.480 OA
BRANCH   6   9
ATOM      8  C   LIG    1       -0.018   1.448   0.010  0.00  0.00    +0.280 C 
ATOM      9  O   LIG    1        0.002  -0.004   0.002  0.00  0.00    -0.330 OA
ENDBRANCH   6   9
ENDBRANCH   1   6
BRANCH   2  10
ATOM     10  O   LIG    1        0.188  -4.212  -0.250  0.00  0.00    -0.410 OA
ATOM     11  H   LIG    1       -0.229  -4.661   0.498  0.00  0.00    +0.410 HD
ENDBRANCH   2  10
TORSDOF 4
